-----BEGIN OPENSSH PRIVATE KEY-----
b3BlbnNzaC1rZXktdjEAAAAABG5vbmUAAAAEbm9uZQAAAAAAAAABAAABlwAAAAdzc2gtcn
NhAAAAAwEAAQAAAYEA8AXmPjVoo+4/D7JcXOqvoXBDqbOR2mkZVPgdEABngFWKn9h2jae/
fQuTr8Ms7WGxoTxLZybulNCVnbZ0fVYaxxuX3Y4GbiEqDo+WU2jhj0Z/lP6zkishYkAnBT
PHw3vgmcghTDdlMhKicHM3SiXkgeWAtYfw6sVni/l9NWfhFieGShnoXSJOvBRy2M5p55LD
4LYsafRTrWv7ZxM5LmRA5rbmFJFFc+wOXmdK57jsGyIZ+MH8xPcPOAQPb2A3gLVf0FbY10
hKw42We7ntTceFT2OlqZTYjcsurZXjbyI+8TLVDqaugCmC60BbfgC8XodP8m9vvJUj1W6n
N4kfedmOON0GIM3Wp5T4925JZzM7EOpN2sijn5AsSFBkbB+fRgGTIwYXho3lGIGh7cZVit
EhoOAxmIyEiaF9chPSrP4wdrhCB7ImYaTYiAyJMoVQ6tclXpFvDsWd9YnIkw5g7MnYmpDy
Ohh+ozDdrXNtW6+78XyO+cXIbIYN5ED2LVBREsF1AAAFiGArZ+VgK2flAAAAB3NzaC1yc2
EAAAGBAPAF5j41aKPuPw+yXFzqr6FwQ6mzkdppGVT4HRAAZ4BVip/Ydo2nv30Lk6/DLO1h
saE8S2cm7pTQlZ22dH1WGscbl92OBm4hKg6PllNo4Y9Gf5T+s5IrIWJAJwUzx8N74JnIIU
w3ZTISonBzN0ol5IHlgLWH8OrFZ4v5fTVn4RYnhkoZ6F0iTrwUctjOaeeSw+C2LGn0U61r
+2cTOS5kQOa25hSRRXPsDl5nSue47BsiGfjB/MT3DzgED29gN4C1X9BW2NdISsONlnu57U
3HhU9jpamU2I3LLq2V428iPvEy1Q6mroApgutAW34AvF6HT/Jvb7yVI9VupzeJH3nZjjjd
BiDN1qeU+PduSWczOxDqTdrIo5+QLEhQZGwfn0YBkyMGF4aN5RiBoe3GVYrRIaDgMZiMhI
mhfXIT0qz+MHa4QgeyJmGk2IgMiTKFUOrXJV6Rbw7FnfWJyJMOYOzJ2JqQ8joYfqMw3a1z
bVuvu/F8jvnFyGyGDeRA9i1QURLBdQAAAAMBAAEAAAGAEPE5qVZ3xmqAxQjgACcIsqqL/C
SSvQoCIb9JveFpbOOc31+WLrWSjK8Og6+RMkhdE3aAFA3pdVOr2/APFPHI/hjyhU8LISby
Iwj7oXObyFM/mjLIVh75Qkgo+PMIvMG3vuMjho+6cuhh0vIvCurV0F100luAI/I/NuAreG
OWvcuYbQ6bGkfbqub+nFMlopT3gpsZU3lNlsYyfroapS2qbx6l6vm+H0qgUQWVgfnJoLit
gKOgxf5yco/GzyPJhypGMBwMgnJ5WiFz4Da3ivB2jLcRFnMXPFf4sOJ1OR8qomgStj5NfY
3k3SBIg4XWFykx2LSHvVzINLqwmn65thTYeo5wMyCjsVzYas/ljWubYXB8AAzemZUxQHZh
h7Ij/zwOKv5j7RNANoLjm+U7aNyo4zX79ksxhAQlUnx+xlZIbKU99H+JBjqkS+YsgyNtMe
7Ily32hNnph3hXY3ayiJWGg5VJbeVw4asWCA6Rq+QDKbYTeJoTKRuoNzraLvYmnKjZAAAA
wQDEigtiRloLYcZItBTNbT8EGAMoJUDOFPFZtRb5nmNe4U3uNo0IM7ub1LOruDmSjwRMzi
Ok32hJW+SUAuC0vouLoaujXaxqTv5D3VIC6Sn7Sc/GNYaC2/yBWaXqUntoJt2KlB2cXoe0
An0jr9Qv3zod47t+lHbn3nPnu4OSI7/2uqjVkoHp0ZtX4nUj3opAg2W/G/0t1VIQxR8PHU
tRwBcPSAewCTIEXjyoux51SX/tZaw752y3qQ/BBCl4aHZdpzQAAADBAP0CtnnFEW7bQATK
jjlwxqVnvHfwtPmHRaM2hi7muGpSnLqTAFUpg/7DRmo0GtyZNZa67Diyy3c/uag2m9joXX
T0iT/ertutlviKJdXFIQBCsSPBOp9cPe9xv6Itg49uFP5a8yw5mhVo/11vDng5W05sek7x
vbi7uDmeNymdx6CHS9fwp8HBbXwo/QpwI5lfkpUlb/s5oKm97N26c//5qECyUtfj1eaJxe
clXZUJQXa/4HE592dBDFe0ibGoc7eYEwAAAMEA8tvnH+u3P/SF9tjOcPoGNT046M3+M3cY
6sP3Hh80iZqKi5TbcYlTNF3HuT6mw9LR+tchrlsenuF9YG6BJisnuQLJmmKooGCWlkhIdj
/niaJUoixXRGR5C/fg/mz6i0w/qZAV4i178f2fa+GNyomC0LAxPXoGuK14tN9YulNOqkUu
wf2en697EJ88ZS5IW/uVjknsjEYE95OyU0L95g7+X6LMzp9rzV3zaKMwSkPOKvrRXBQTQG
/8oUwKiukwUgFXAAAAEHdhaGFiQEFiZHVsd2FoYWIBAg==
-----END OPENSSH PRIVATE KEY-----
